#======================================================================

# CRYSTAL DATA

#----------------------------------------------------------------------

data_VESTA_phase_1


_chemical_name_common                  'c4 mg o4, 4(o1.25)'
_cell_length_a                         26.02607(6)
_cell_length_b                         26.02607(6)
_cell_length_c                         6.75872(3)
_cell_angle_alpha                      90
_cell_angle_beta                       90
_cell_angle_gamma                      120
_space_group_name_H-M_alt              'R -3'
_space_group_IT_number                 148

loop_
_space_group_symop_operation_xyz
   'x, y, z'
   '-x, -y, -z'
   '-y, x-y, z'
   'y, -x+y, -z'
   '-x+y, -x, z'
   'x-y, x, -z'
   'x+2/3, y+1/3, z+1/3'
   '-x+2/3, -y+1/3, -z+1/3'
   '-y+2/3, x-y+1/3, z+1/3'
   'y+2/3, -x+y+1/3, -z+1/3'
   '-x+y+2/3, -x+1/3, z+1/3'
   'x-y+2/3, x+1/3, -z+1/3'
   'x+1/3, y+2/3, z+2/3'
   '-x+1/3, -y+2/3, -z+2/3'
   '-y+1/3, x-y+2/3, z+2/3'
   'y+1/3, -x+y+2/3, -z+2/3'
   '-x+y+1/3, -x+2/3, z+2/3'
   'x-y+1/3, x+2/3, -z+2/3'

loop_
   _atom_site_label
   _atom_site_occupancy
   _atom_site_fract_x
   _atom_site_fract_y
   _atom_site_fract_z
   _atom_site_adp_type
   _atom_site_U_iso_or_equiv
   _atom_site_type_symbol
   C1         1.0     0.4011(4)     0.4196(4)     0.7468(8)    Uiso  0.000400 C
   C2         1.0     0.4533(4)     0.4578(4)     0.8862(9)    Uiso  0.012300 C
   C3         1.0     0.4962(4)     0.5160(4)     0.7891(8)    Uiso  0.011100 C
   C4         1.0     0.5422(4)     0.5521(4)     0.9258(11)   Uiso  0.028500 C
   Mg1        1.0     0.65048(9)    0.61512(9)    0.6454(4)    Uiso  0.019000 Mg
   O1         1.0     0.40416(14)   0.43959(17)   0.5674(5)    Uiso  0.015100 O
   O2         1.0     0.36180(16)   0.37120(16)   0.8109(5)    Uiso  0.016400 O
   O3         1.0     0.58373(17)   0.60612(17)   0.8426(7)    Uiso  0.031700 O
   H1         1.0     0.494209      0.530128      0.638945     Uiso  0.015000 H
